Circuit: * C:\Users\ycho\Desktop\Academics\2017\FA\eclectronics\projects\03_loc\Eclectronics-Project-3\ultrasonic_localization\analysis\schmitt.asc

V3: Removing PWL point (0.00145,5)
Direct Newton iteration failed to find .op point.  (Use ".option noopiter" to skip.)
Starting Gmin stepping
Gmin = 10
Gmin = 1.07374
Gmin = 0.115292
Gmin = 0.0123794
Gmin = 0.00132923
Gmin = 0.000142725
Gmin = 1.5325e-005
Gmin = 1.6455e-006
Gmin = 1.76685e-007
Gmin = 1.89714e-008
Gmin = 2.03704e-009
Gmin = 2.18725e-010
Gmin = 2.34854e-011
Gmin = 2.52173e-012
Gmin = 2.70769e-013
Gmin = 0
Gmin stepping succeeded in finding the operating point.


Date: Mon Nov 13 16:56:22 2017
Total elapsed time: 1.355 seconds.

tnom = 27
temp = 27
method = modified trap
totiter = 47685
traniter = 47227
tranpoints = 20652
accept = 12453
rejected = 8199
matrix size = 16
fillins = 3
solver = Normal
Matrix Compiler1: 886 bytes object code size  0.8/0.5/[0.2]
Matrix Compiler2: off  [0.7]/1.1/0.9


